// Generated for: spectre
// Generated on: Nov 24 19:41:00 2019
// Design library name: final_project
// Design cell name: zz_switchtest
// Design view name: schematic
simulator lang=spectre
global 0
parameters control=1 vin=5V
include "/home/ff/ee140/fa19/xfab/XKIT/xt018/cadence/v8_0/spectre/v8_0_2/lp5mos/config.scs" section=default
include "/home/ff/ee140/fa19/xfab/XKIT/xt018/cadence/v8_0/spectre/v8_0_2/lp5mos/param.scs" section=3s
include "/home/ff/ee140/fa19/xfab/XKIT/xt018/cadence/v8_0/spectre/v8_0_2/lp5mos/bip.scs" section=tm
include "/home/ff/ee140/fa19/xfab/XKIT/xt018/cadence/v8_0/spectre/v8_0_2/lp5mos/cap.scs" section=tm
include "/home/ff/ee140/fa19/xfab/XKIT/xt018/cadence/v8_0/spectre/v8_0_2/lp5mos/dio.scs" section=tm
include "/home/ff/ee140/fa19/xfab/XKIT/xt018/cadence/v8_0/spectre/v8_0_2/lp5mos/mos.scs" section=tm
include "/home/ff/ee140/fa19/xfab/XKIT/xt018/cadence/v8_0/spectre/v8_0_2/lp5mos/res.scs" section=tm

// Library name: final_project
// Cell name: zz_switchtest
// View name: schematic
W0 (net2 net4 net03 0) relay vt1=100.0m vt2=900.0m ropen=1T rclosed=1.0
V1 (net03 0) vsource dc=control type=dc
V0 (net2 0) vsource dc=vin type=dc
R0 (net4 0) resistor r=1K
simulatorOptions options reltol=100e-6 vabstol=1e-6 iabstol=1e-12 temp=27 \
    tnom=27 homotopy=all limit=delta scalem=1.0 scale=1.0 \
    compatible=spice2 gmin=1e-12 rforce=1 maxnotes=5 maxwarns=5 digits=5 \
    cols=80 pivrel=1e-3 sensfile="../psf/sens.output" checklimitdest=psf 
dcOp dc write="spectre.dc" maxiters=150 maxsteps=10000 annotate=status
dcOpInfo info what=oppoint where=rawfile
modelParameter info what=models where=rawfile
element info what=inst where=rawfile
outputParameter info what=output where=rawfile
designParamVals info what=parameters where=rawfile
primitives info what=primitives where=rawfile
subckts info what=subckts where=rawfile
save R0:1 
saveOptions options save=allpub
