// Generated for: spectre
// Generated on: Nov 24 19:41:00 2019
// Design library name: final_project
// Design cell name: zz_switchtest
// Design view name: schematic
simulator lang=spectre
global 0
