// Generated for: spectre
// Generated on: Nov 25 17:36:29 2019
// Design library name: final_project
// Design cell name: zz_ADC
// Design view name: schematic
simulator lang=spectre
global 0
