// Generated for: spectre
// Generated on: Nov 25 09:29:03 2019
// Design library name: final_project
// Design cell name: zz_comp
// Design view name: schematic
simulator lang=spectre
global 0
parameters supply=1.2 Vneg=925m Vplus=0.9
include "/home/ff/ee140/fa19/xfab/XKIT/xt018/cadence/v8_0/spectre/v8_0_2/lp5mos/config.scs" section=default
include "/home/ff/ee140/fa19/xfab/XKIT/xt018/cadence/v8_0/spectre/v8_0_2/lp5mos/param.scs" section=3s
include "/home/ff/ee140/fa19/xfab/XKIT/xt018/cadence/v8_0/spectre/v8_0_2/lp5mos/bip.scs" section=tm
include "/home/ff/ee140/fa19/xfab/XKIT/xt018/cadence/v8_0/spectre/v8_0_2/lp5mos/cap.scs" section=tm
include "/home/ff/ee140/fa19/xfab/XKIT/xt018/cadence/v8_0/spectre/v8_0_2/lp5mos/dio.scs" section=tm
include "/home/ff/ee140/fa19/xfab/XKIT/xt018/cadence/v8_0/spectre/v8_0_2/lp5mos/mos.scs" section=tm
include "/home/ff/ee140/fa19/xfab/XKIT/xt018/cadence/v8_0/spectre/v8_0_2/lp5mos/res.scs" section=tm

// Library name: final_project
// Cell name: inverter
// View name: schematic
subckt inverter IN OUT VDD VSS
    M0 (OUT IN VSS VSS) ne w=220.0n l=180.0n as=1.056e-13 ad=1.056e-13 \
        ps=1.4e-06 pd=1.4e-06 nrs=1.22727 nrd=1.22727 m=(1)*(1) \
        par1=((1)*(1))
    M1 (OUT IN VDD VDD) pe w=220.0n l=180.0n as=1.056e-13 ad=1.056e-13 \
        ps=1.4e-06 pd=1.4e-06 nrs=1.22727 nrd=1.22727 m=(1)*(1) \
        par1=((1)*(1))
ends inverter
// End of subcircuit definition.

// Library name: final_project
// Cell name: COMP
// View name: schematic
subckt COMP INN INP OUT VDD VSS CLK
    S2 (Q CLK VDD VDD) pe w=220.0n l=180.0n as=1.056e-13 ad=1.056e-13 \
        ps=1.4e-06 pd=1.4e-06 nrs=1.22727 nrd=1.22727 m=(1)*(1) \
        par1=((1)*(1))
    S4 (Y CLK VDD VDD) pe w=220.0n l=180.0n as=1.056e-13 ad=1.056e-13 \
        ps=1.4e-06 pd=1.4e-06 nrs=1.22727 nrd=1.22727 m=(1)*(1) \
        par1=((1)*(1))
    M3L (X Y VDD VDD) pe w=220.0n l=180.0n as=1.056e-13 ad=1.056e-13 \
        ps=1.4e-06 pd=1.4e-06 nrs=1.22727 nrd=1.22727 m=(1)*(1) \
        par1=((1)*(1))
    S1 (P CLK VDD VDD) pe w=220.0n l=180.0n as=1.056e-13 ad=1.056e-13 \
        ps=1.4e-06 pd=1.4e-06 nrs=1.22727 nrd=1.22727 m=(1)*(1) \
        par1=((1)*(1))
    S3 (X CLK VDD VDD) pe w=220.0n l=180.0n as=1.056e-13 ad=1.056e-13 \
        ps=1.4e-06 pd=1.4e-06 nrs=1.22727 nrd=1.22727 m=(1)*(1) \
        par1=((1)*(1))
    M3R (Y X VDD VDD) pe w=220.0n l=180.0n as=1.056e-13 ad=1.056e-13 \
        ps=1.4e-06 pd=1.4e-06 nrs=1.22727 nrd=1.22727 m=(1)*(1) \
        par1=((1)*(1))
    S5 (net15 CLK VSS VSS) ne w=220.0n l=180.0n as=1.056e-13 ad=1.056e-13 \
        ps=1.4e-06 pd=1.4e-06 nrs=1.22727 nrd=1.22727 m=(1)*(1) \
        par1=((1)*(1))
    M1R (Q INN net15 net15) ne w=220.0n l=180.0n as=1.056e-13 ad=1.056e-13 \
        ps=1.4e-06 pd=1.4e-06 nrs=1.22727 nrd=1.22727 m=(1)*(1) \
        par1=((1)*(1))
    M1L (P INP net15 net15) ne w=220.0n l=180.0n as=1.056e-13 ad=1.056e-13 \
        ps=1.4e-06 pd=1.4e-06 nrs=1.22727 nrd=1.22727 m=(1)*(1) \
        par1=((1)*(1))
    M2R (Y X Q Q) ne w=220.0n l=180.0n as=1.056e-13 ad=1.056e-13 \
        ps=1.4e-06 pd=1.4e-06 nrs=1.22727 nrd=1.22727 m=(1)*(1) \
        par1=((1)*(1))
    M2L (X Y P P) ne w=220.0n l=180.0n as=1.056e-13 ad=1.056e-13 \
        ps=1.4e-06 pd=1.4e-06 nrs=1.22727 nrd=1.22727 m=(1)*(1) \
        par1=((1)*(1))
    I2 (X net021 VDD VSS) inverter
    I1 (Y OUT VDD VSS) inverter
ends COMP
// End of subcircuit definition.

// Library name: final_project
// Cell name: zz_comp
// View name: schematic
I0 (VIN VIP OUT VDD VSS CLK) COMP
V3 (VIN VSS) vsource dc=Vneg type=dc
V2 (VIP VSS) vsource dc=Vplus type=dc
V1 (VDD VSS) vsource dc=supply type=dc
V0 (VSS 0) vsource dc=0 type=dc
V4 (CLK VSS) vsource dc=0 type=pulse val0=0 val1=1 period=20u delay=10n \
        rise=10n fall=10n width=10u
simulatorOptions options reltol=100e-6 vabstol=1e-6 iabstol=1e-12 temp=27 \
    tnom=27 homotopy=all limit=delta scalem=1.0 scale=1.0 \
    compatible=spice2 gmin=1e-12 rforce=1 maxnotes=5 maxwarns=5 digits=5 \
    cols=80 pivrel=1e-3 sensfile="../psf/sens.output" checklimitdest=psf 
tran tran stop=10u errpreset=conservative write="spectre.ic" \
    writefinal="spectre.fc" annotate=status maxiters=5 
finalTimeOP info what=oppoint where=rawfile
modelParameter info what=models where=rawfile
element info what=inst where=rawfile
outputParameter info what=output where=rawfile
designParamVals info what=parameters where=rawfile
primitives info what=primitives where=rawfile
subckts info what=subckts where=rawfile
saveOptions options save=allpub
