// Generated for: spectre
// Generated on: Nov 26 15:34:24 2019
// Design library name: final_project
// Design cell name: zz_comp
// Design view name: schematic
simulator lang=spectre
global 0
