// Generated for: spectre
// Generated on: Nov 27 20:14:54 2019
// Design library name: final_project
// Design cell name: zz_system
// Design view name: config
simulator lang=spectre binding=vlog  
global 0
