// Generated for: spectre
// Generated on: Nov 29 13:26:24 2019
// Design library name: final_project
// Design cell name: zz_PGA_tester
// Design view name: schematic
simulator lang=spectre
global 0
