simulator lang=spectre
include "ne.scs"
include "nel.scs"
include "pe.scs"
include "pel.scs"
