// Generated for: spectre
// Generated on: Nov 29 00:07:16 2019
// Design library name: final_project
// Design cell name: PGA
// Design view name: schematic
simulator lang=spectre
global 0
parameters WLp=62u Lmin=1u WLn=25u
include "/home/ff/ee140/fa19/xfab/XKIT/xt018/cadence/v8_0/spectre/v8_0_2/lp5mos/config.scs" section=default
include "/home/ff/ee140/fa19/xfab/XKIT/xt018/cadence/v8_0/spectre/v8_0_2/lp5mos/param.scs" section=3s
include "/home/ff/ee140/fa19/xfab/XKIT/xt018/cadence/v8_0/spectre/v8_0_2/lp5mos/bip.scs" section=tm
include "/home/ff/ee140/fa19/xfab/XKIT/xt018/cadence/v8_0/spectre/v8_0_2/lp5mos/cap.scs" section=tm
include "/home/ff/ee140/fa19/xfab/XKIT/xt018/cadence/v8_0/spectre/v8_0_2/lp5mos/dio.scs" section=tm
include "/home/ff/ee140/fa19/xfab/XKIT/xt018/cadence/v8_0/spectre/v8_0_2/lp5mos/mos.scs" section=tm
include "/home/ff/ee140/fa19/xfab/XKIT/xt018/cadence/v8_0/spectre/v8_0_2/lp5mos/res.scs" section=tm

// Library name: lab5
// Cell name: pmos_cascode_wrap
// View name: schematic
subckt pmos_cascode_wrap INN INP OUT VDD VSS
    M23 (net062 net062 VDD VDD) pel w=0.5*WLp l=Lmin as=4.8e-07*(0.5*WLp) \
        ad=4.8e-07*(0.5*WLp) ps=1*2*(4.8e-07+(0.5*WLp)) \
        pd=2*(4.8e-07+(0.5*WLp)) nrs=2.7e-07/(0.5*WLp) \
        nrd=2.7e-07/(0.5*WLp) m=(1)*(1) par1=((1)*(1))
    M22 (net052 net062 VDD VDD) pel w=1*WLp l=Lmin as=4.8e-07*(1*WLp) \
        ad=4.8e-07*(1*WLp) ps=1*2*(4.8e-07+(1*WLp)) pd=2*(4.8e-07+(1*WLp)) \
        nrs=2.7e-07/(1*WLp) nrd=2.7e-07/(1*WLp) m=(1)*(1) par1=((1)*(1))
    M27 (net063 net014 VDD VDD) pel w=0.5*WLp l=Lmin as=4.8e-07*(0.5*WLp) \
        ad=4.8e-07*(0.5*WLp) ps=1*2*(4.8e-07+(0.5*WLp)) \
        pd=2*(4.8e-07+(0.5*WLp)) nrs=2.7e-07/(0.5*WLp) \
        nrd=2.7e-07/(0.5*WLp) m=(1)*(1) par1=((1)*(1))
    M12 (net039 net014 VDD VDD) pel w=0.5*WLp l=Lmin as=4.8e-07*(0.5*WLp) \
        ad=4.8e-07*(0.5*WLp) ps=1*2*(4.8e-07+(0.5*WLp)) \
        pd=2*(4.8e-07+(0.5*WLp)) nrs=2.7e-07/(0.5*WLp) \
        nrd=2.7e-07/(0.5*WLp) m=(1)*(1) par1=((1)*(1))
    M11 (net014 net014 VDD VDD) pel w=0.5*WLp l=Lmin as=4.8e-07*(0.5*WLp) \
        ad=4.8e-07*(0.5*WLp) ps=1*2*(4.8e-07+(0.5*WLp)) \
        pd=2*(4.8e-07+(0.5*WLp)) nrs=2.7e-07/(0.5*WLp) \
        nrd=2.7e-07/(0.5*WLp) m=(1)*(1) par1=((1)*(1))
    M7 (net11 net014 VDD VDD) pel w=WLp l=Lmin as=4.8e-07*(WLp) \
        ad=4.8e-07*(WLp) ps=1*2*(4.8e-07+(WLp)) pd=2*(4.8e-07+(WLp)) \
        nrs=2.7e-07/(WLp) nrd=2.7e-07/(WLp) m=(1)*(1) par1=((1)*(1))
    M6 (net044 INP net11 net11) pel w=0.5*WLp l=Lmin as=4.8e-07*(0.5*WLp) \
        ad=4.8e-07*(0.5*WLp) ps=1*2*(4.8e-07+(0.5*WLp)) \
        pd=2*(4.8e-07+(0.5*WLp)) nrs=2.7e-07/(0.5*WLp) \
        nrd=2.7e-07/(0.5*WLp) m=(1)*(1) par1=((1)*(1))
    M4 (net20 net20 VDD VDD) pel w=0.5*WLp l=Lmin as=4.8e-07*(0.5*WLp) \
        ad=4.8e-07*(0.5*WLp) ps=1*2*(4.8e-07+(0.5*WLp)) \
        pd=2*(4.8e-07+(0.5*WLp)) nrs=2.7e-07/(0.5*WLp) \
        nrd=2.7e-07/(0.5*WLp) m=(1)*(1) par1=((1)*(1))
    M3 (net19 net19 net20 net20) pel w=0.5*WLp l=Lmin as=4.8e-07*(0.5*WLp) \
        ad=4.8e-07*(0.5*WLp) ps=1*2*(4.8e-07+(0.5*WLp)) \
        pd=2*(4.8e-07+(0.5*WLp)) nrs=2.7e-07/(0.5*WLp) \
        nrd=2.7e-07/(0.5*WLp) m=(1)*(1) par1=((1)*(1))
    M2 (OUT net19 net23 net23) pel w=0.5*WLp l=Lmin as=4.8e-07*(0.5*WLp) \
        ad=4.8e-07*(0.5*WLp) ps=1*2*(4.8e-07+(0.5*WLp)) \
        pd=2*(4.8e-07+(0.5*WLp)) nrs=2.7e-07/(0.5*WLp) \
        nrd=2.7e-07/(0.5*WLp) m=(1)*(1) par1=((1)*(1))
    M1 (net23 net20 VDD VDD) pel w=0.5*WLp l=Lmin as=4.8e-07*(0.5*WLp) \
        ad=4.8e-07*(0.5*WLp) ps=1*2*(4.8e-07+(0.5*WLp)) \
        pd=2*(4.8e-07+(0.5*WLp)) nrs=2.7e-07/(0.5*WLp) \
        nrd=2.7e-07/(0.5*WLp) m=(1)*(1) par1=((1)*(1))
    M5 (net35 INN net11 net11) pel w=0.5*WLp l=Lmin as=4.8e-07*(0.5*WLp) \
        ad=4.8e-07*(0.5*WLp) ps=1*2*(4.8e-07+(0.5*WLp)) \
        pd=2*(4.8e-07+(0.5*WLp)) nrs=2.7e-07/(0.5*WLp) \
        nrd=2.7e-07/(0.5*WLp) m=(1)*(1) par1=((1)*(1))
    M24 (net052 net052 VSS VSS) nel w=0.2*WLn l=Lmin as=4.8e-07*(0.2*WLn) \
        ad=4.8e-07*(0.2*WLn) ps=1*2*(4.8e-07+(0.2*WLn)) \
        pd=2*(4.8e-07+(0.2*WLn)) nrs=2.7e-07/(0.2*WLn) \
        nrd=2.7e-07/(0.2*WLn) m=(1)*(1) par1=((1)*(1))
    M26 (net063 net063 VSS VSS) nel w=0.5*WLn l=Lmin as=4.8e-07*(0.5*WLn) \
        ad=4.8e-07*(0.5*WLn) ps=1*2*(4.8e-07+(0.5*WLn)) \
        pd=2*(4.8e-07+(0.5*WLn)) nrs=2.7e-07/(0.5*WLn) \
        nrd=2.7e-07/(0.5*WLn) m=(1)*(1) par1=((1)*(1))
    M25 (net062 net063 VSS VSS) nel w=0.5*WLn l=Lmin as=4.8e-07*(0.5*WLn) \
        ad=4.8e-07*(0.5*WLn) ps=1*2*(4.8e-07+(0.5*WLn)) \
        pd=2*(4.8e-07+(0.5*WLn)) nrs=2.7e-07/(0.5*WLn) \
        nrd=2.7e-07/(0.5*WLn) m=(1)*(1) par1=((1)*(1))
    M14 (net039 net039 VSS VSS) nel w=0.5*WLn l=Lmin as=4.8e-07*(0.5*WLn) \
        ad=4.8e-07*(0.5*WLn) ps=1*2*(4.8e-07+(0.5*WLn)) \
        pd=2*(4.8e-07+(0.5*WLn)) nrs=2.7e-07/(0.5*WLn) \
        nrd=2.7e-07/(0.5*WLn) m=(1)*(1) par1=((1)*(1))
    M13 (net014 net039 net051 net051) nel w=2*WLn l=Lmin \
        as=4.8e-07*(2*WLn) ad=4.8e-07*(2*WLn) ps=1*2*(4.8e-07+(2*WLn)) \
        pd=2*(4.8e-07+(2*WLn)) nrs=2.7e-07/(2*WLn) nrd=2.7e-07/(2*WLn) \
        m=(1)*(1) par1=((1)*(1))
    M10 (net35 net063 VSS VSS) nel w=1*WLn l=Lmin as=4.8e-07*(1*WLn) \
        ad=4.8e-07*(1*WLn) ps=1*2*(4.8e-07+(1*WLn)) pd=2*(4.8e-07+(1*WLn)) \
        nrs=2.7e-07/(1*WLn) nrd=2.7e-07/(1*WLn) m=(1)*(1) par1=((1)*(1))
    M9 (OUT net052 net35 net35) nel w=0.5*WLn l=Lmin as=4.8e-07*(0.5*WLn) \
        ad=4.8e-07*(0.5*WLn) ps=1*2*(4.8e-07+(0.5*WLn)) \
        pd=2*(4.8e-07+(0.5*WLn)) nrs=2.7e-07/(0.5*WLn) \
        nrd=2.7e-07/(0.5*WLn) m=(1)*(1) par1=((1)*(1))
    M8 (net044 net063 VSS VSS) nel w=1*WLn l=Lmin as=4.8e-07*(1*WLn) \
        ad=4.8e-07*(1*WLn) ps=1*2*(4.8e-07+(1*WLn)) pd=2*(4.8e-07+(1*WLn)) \
        nrs=2.7e-07/(1*WLn) nrd=2.7e-07/(1*WLn) m=(1)*(1) par1=((1)*(1))
    M0 (net19 net052 net044 net044) nel w=0.5*WLn l=Lmin \
        as=4.8e-07*(0.5*WLn) ad=4.8e-07*(0.5*WLn) \
        ps=1*2*(4.8e-07+(0.5*WLn)) pd=2*(4.8e-07+(0.5*WLn)) \
        nrs=2.7e-07/(0.5*WLn) nrd=2.7e-07/(0.5*WLn) m=(1)*(1) \
        par1=((1)*(1))
    R0 (net051 VSS) resistor r=10k
ends pmos_cascode_wrap
// End of subcircuit definition.

// Library name: final_project
// Cell name: inverter
// View name: schematic
subckt inverter IN OUT VDD VSS
    M0 (OUT IN VSS VSS) ne w=220.0n l=180.0n as=1.056e-13 ad=1.056e-13 \
        ps=1.4e-06 pd=1.4e-06 nrs=1.22727 nrd=1.22727 m=(1)*(1) \
        par1=((1)*(1))
    M1 (OUT IN VDD VDD) pe w=220.0n l=180.0n as=1.056e-13 ad=1.056e-13 \
        ps=1.4e-06 pd=1.4e-06 nrs=1.22727 nrd=1.22727 m=(1)*(1) \
        par1=((1)*(1))
ends inverter
// End of subcircuit definition.

// Library name: final_project
// Cell name: PGA
// View name: schematic
R3 (VSS G\<0\>) resistor r=1K
R1 (VSS G\<2\>) resistor r=1K
R0 (VSS G\<1\>) resistor r=1K
C4 (net9 VOUT) capacitor c=40p
C0 (net014 net9) capacitor c=400p
I4 (net9 VSS VOUT VDD VSS) pmos_cascode_wrap
W1 (VIN VSS CLK2 VSS) relay ropen=1T rclosed=1.0
W0 (net014 VIN CLK VSS) relay ropen=1T rclosed=1.0
W21 (VOUT net9 CLK2 VSS) relay ropen=1T rclosed=1.0
I3 (CLK CLK2 VDD VSS) inverter
simulatorOptions options reltol=100e-6 vabstol=1e-6 iabstol=1e-12 temp=27 \
    tnom=27 homotopy=all limit=delta scalem=1.0 scale=1.0 \
    compatible=spice2 gmin=1e-12 rforce=1 maxnotes=5 maxwarns=5 digits=5 \
    cols=80 pivrel=1e-3 sensfile="../psf/sens.output" checklimitdest=psf 
tran tran stop=10u errpreset=moderate write="spectre.ic" \
    writefinal="spectre.fc" annotate=status maxiters=5 
finalTimeOP info what=oppoint where=rawfile
modelParameter info what=models where=rawfile
element info what=inst where=rawfile
outputParameter info what=output where=rawfile
designParamVals info what=parameters where=rawfile
primitives info what=primitives where=rawfile
subckts info what=subckts where=rawfile
save R0:1 
saveOptions options save=allpub
