// Generated for: spectre
// Generated on: Nov 29 00:07:16 2019
// Design library name: final_project
// Design cell name: PGA
// Design view name: schematic
simulator lang=spectre
global 0
