// Generated for: spectre
// Generated on: Dec  3 15:33:13 2019
// Design library name: final_project
// Design cell name: DREG_test1130
// Design view name: schematic
simulator lang=spectre
global 0
